Version 4.1
SHEET 1 1460 900
WIRE 240 -144 208 -144
WIRE 432 -144 320 -144
WIRE 816 -144 432 -144
WIRE 816 -112 816 -144
WIRE -128 -64 -496 -64
WIRE 128 -64 -32 -64
WIRE 208 -64 208 -144
WIRE 208 -64 128 -64
WIRE 512 -64 208 -64
WIRE 720 -64 512 -64
WIRE 800 -64 720 -64
WIRE 1024 -64 896 -64
WIRE 720 -48 720 -64
WIRE 208 0 208 -64
WIRE 288 0 208 0
WIRE 432 0 432 -144
WIRE 432 0 352 0
WIRE -48 16 -48 -16
WIRE 128 16 -48 16
WIRE 432 16 432 0
WIRE 512 16 512 -64
WIRE -48 48 -48 16
WIRE 720 80 720 32
WIRE 1024 112 1024 -64
WIRE 432 128 432 96
WIRE 512 176 512 160
WIRE 512 176 496 176
WIRE 592 176 512 176
WIRE -496 192 -496 -64
WIRE 720 224 720 144
WIRE 720 224 656 224
WIRE 720 288 720 224
WIRE 592 384 592 272
WIRE -496 400 -496 272
WIRE -48 416 -48 128
WIRE 1024 416 1024 192
WIRE 720 432 720 368
WIRE 432 560 432 224
FLAG -496 400 0
FLAG 432 560 0
FLAG -48 416 0
FLAG 1024 416 0
FLAG 592 384 0
FLAG 720 432 0
SYMBOL Contrib\\Toshiba\\lvmos\\SSM3J352F_G0_00 -128 -16 R270
WINDOW 3 116 115 VLeft 2
SYMATTR InstName U1
SYMBOL voltage -496 176 R0
WINDOW 123 0 0 Left 0
WINDOW 39 0 0 Left 0
SYMATTR InstName V1
SYMATTR Value SINE(0 13 60)
SYMBOL res -64 32 R0
SYMATTR InstName R1
SYMATTR Value 100k
SYMBOL res 112 -80 R0
SYMATTR InstName R2
SYMATTR Value 100k
SYMBOL Contrib\\Toshiba\\lvmos\\SSM3J352F_G0_00 896 -112 R90
WINDOW 3 116 115 VLeft 2
SYMATTR InstName U2
SYMBOL res 1008 96 R0
SYMATTR InstName R3
SYMATTR Value 60
SYMBOL res 336 -160 R90
WINDOW 0 0 56 VBottom 2
WINDOW 3 32 56 VTop 2
SYMATTR InstName R4
SYMATTR Value 5k
SYMBOL npn 656 176 M0
SYMATTR InstName Q1
SYMATTR Value 2N2222
SYMBOL npn 496 128 M0
SYMATTR InstName Q2
SYMATTR Value 2N2222
SYMBOL zener 528 80 R180
WINDOW 0 24 64 Left 2
WINDOW 3 -128 71 Left 2
SYMATTR InstName D1
SYMATTR Value EDZV10B
SYMBOL res 496 64 R0
SYMATTR InstName R6
SYMATTR Value 5k
SYMBOL zener 736 144 R180
WINDOW 0 24 64 Left 2
WINDOW 3 24 0 Left 2
SYMATTR InstName D2
SYMATTR Value BZX84C12L
SYMBOL res 704 -64 R0
SYMATTR InstName R7
SYMATTR Value 10k
SYMBOL res 416 0 R0
SYMATTR InstName R8
SYMATTR Value 30k
SYMBOL res 704 272 R0
SYMATTR InstName R9
SYMATTR Value 10k
SYMBOL cap 352 -16 R90
WINDOW 0 0 32 VBottom 2
WINDOW 3 32 32 VTop 2
SYMATTR InstName C1
SYMATTR Value 2µF
TEXT -448 360 Left 2 !.dc V1 -20 20 .01
TEXT -424 312 Left 2 ;.tran 1
