Version 4
SHEET 1 1460 900
WIRE -176 -224 -592 -224
WIRE 16 -144 -16 -144
WIRE 432 -144 96 -144
WIRE 816 -144 432 -144
WIRE 816 -112 816 -144
WIRE -592 -64 -592 -224
WIRE -592 -64 -720 -64
WIRE -352 -64 -592 -64
WIRE -176 -64 -176 -224
WIRE -176 -64 -256 -64
WIRE -96 -64 -176 -64
WIRE -16 -64 -16 -144
WIRE -16 -64 -96 -64
WIRE 512 -64 -16 -64
WIRE 720 -64 512 -64
WIRE 800 -64 720 -64
WIRE 1024 -64 896 -64
WIRE 720 -48 720 -64
WIRE -272 16 -272 -16
WIRE -96 16 -272 16
WIRE 432 16 432 -144
WIRE 512 16 512 -64
WIRE -272 48 -272 16
WIRE 720 80 720 32
WIRE 1024 112 1024 -64
WIRE 432 128 432 96
WIRE 512 176 512 160
WIRE 512 176 496 176
WIRE 592 176 512 176
WIRE -720 192 -720 -64
WIRE 720 224 720 144
WIRE 720 224 656 224
WIRE 720 288 720 224
WIRE 592 384 592 272
WIRE -720 400 -720 272
WIRE -272 416 -272 128
WIRE 1024 416 1024 192
WIRE 720 432 720 368
WIRE 432 560 432 224
WIRE 1136 -96 0 0
FLAG -720 400 0
FLAG 432 560 0
FLAG -272 416 0
FLAG 1024 416 0
FLAG 592 384 0
FLAG 720 432 0
SYMBOL Contrib\\Toshiba\\lvmos\\SSM3J352F_G0_00 -352 -16 R270
WINDOW 3 116 115 VLeft 2
SYMATTR InstName U1
SYMBOL voltage -720 176 R0
WINDOW 123 0 0 Left 0
WINDOW 39 0 0 Left 0
SYMATTR InstName V1
SYMATTR Value SINE(0 13 60)
SYMBOL res -288 32 R0
SYMATTR InstName R1
SYMATTR Value 100k
SYMBOL res -112 -80 R0
SYMATTR InstName R2
SYMATTR Value 100k
SYMBOL Contrib\\Toshiba\\lvmos\\SSM3J352F_G0_00 896 -112 R90
WINDOW 3 116 115 VLeft 2
SYMATTR InstName U2
SYMBOL res 1008 96 R0
SYMATTR InstName R3
SYMATTR Value 1
SYMBOL res 112 -160 R90
WINDOW 0 0 56 VBottom 2
WINDOW 3 32 56 VTop 2
SYMATTR InstName R4
SYMATTR Value 10k
SYMBOL npn 656 176 M0
SYMATTR InstName Q1
SYMATTR Value 2N2222
SYMBOL npn 496 128 M0
SYMATTR InstName Q2
SYMATTR Value 2N2222
SYMBOL zener 528 80 R180
WINDOW 0 24 64 Left 2
WINDOW 3 -128 71 Left 2
SYMATTR InstName D1
SYMATTR Value EDZV10B
SYMBOL res 496 64 R0
SYMATTR InstName R6
SYMATTR Value 10k
SYMBOL zener 736 144 R180
WINDOW 0 24 64 Left 2
WINDOW 3 24 0 Left 2
SYMATTR InstName D2
SYMATTR Value BZX84C12L
SYMBOL res 704 -64 R0
SYMATTR InstName R7
SYMATTR Value 10k
SYMBOL res 416 0 R0
SYMATTR InstName R8
SYMATTR Value 100
SYMBOL res 704 272 R0
SYMATTR InstName R9
SYMATTR Value 10k
TEXT -672 360 Left 2 !.dc V1 -20 20 .01
TEXT -648 312 Left 2 ;.tran 1
